Using: /usr/cadtool/cad/synopsys/hspice/2020.12-sp2/hspice/linux64/hspice hw2.3.sp
 ****** PrimeSim HSPICE -- R-2020.12-SP2 linux64 (May 24 2021 7074677) ******
  Copyright (c) 1986 - 2023 by Synopsys, Inc. All Rights Reserved.
  This software and the associated documentation are proprietary
  to Synopsys, Inc. This software may only be used in accordance
  with the terms and conditions of a written license agreement with
  Synopsys, Inc. All other use, reproduction, or distribution of
  this software is strictly prohibited.
  Input File: hw2.3.sp                                                          
  Command line options: /usr/cadtool/cad/synopsys/hspice/2020.12-sp2/hspice/linux64/hspice hw2.3.sp
  Start time: Sat Oct 28 04:23:16 2023
 lic:  
 lic: FLEXlm: SDK_12.9.5 
 lic: USER:   u110030039           HOSTNAME: ws24 
 lic: HOSTID: "507c6f09f6b9"       PID:      56672 
 lic: Using FLEXlm license file: 
 lic: 26585@lstn 
 lic: Checkout 1 hspice 
 lic: License/Maintenance for hspice will expire on 31-mar-2024/2023.03 
 lic: 244(in_use)/450(total) FLOATING license(s) on SERVER 26585@lstn 
 lic:   
 

  
      
 *****************************************************************
 ******  option summary
 ******
 runlvl  = 3         bypass  = 2.0000    




 ****     small-signal transfer characteristics

        vin        input resistance at vin       output resistance at v(vout)     v(vout)/vin      

       1.5000            1.000e+20                       6.7303k                  765.6578m
       1.5010            1.000e+20                       6.7277k                  765.7373m
       1.5020            1.000e+20                       6.7252k                  765.8166m
       1.5030            1.000e+20                       6.7226k                  765.8958m
       1.5040            1.000e+20                       6.7201k                  765.9748m
       1.5050            1.000e+20                       6.7175k                  766.0537m
       1.5060            1.000e+20                       6.7150k                  766.1325m
       1.5070            1.000e+20                       6.7124k                  766.2112m
       1.5080            1.000e+20                       6.7099k                  766.2898m
       1.5090            1.000e+20                       6.7074k                  766.3682m
       1.5100            1.000e+20                       6.7048k                  766.4465m
       1.5110            1.000e+20                       6.7023k                  766.5247m
       1.5120            1.000e+20                       6.6998k                  766.6027m
       1.5130            1.000e+20                       6.6972k                  766.6806m
       1.5140            1.000e+20                       6.6947k                  766.7584m
       1.5150            1.000e+20                       6.6922k                  766.8361m
       1.5160            1.000e+20                       6.6897k                  766.9136m
       1.5170            1.000e+20                       6.6872k                  766.9911m
       1.5180            1.000e+20                       6.6847k                  767.0683m
       1.5190            1.000e+20                       6.6822k                  767.1455m
       1.5200            1.000e+20                       6.6797k                  767.2226m
       1.5210            1.000e+20                       6.6772k                  767.2995m
       1.5220            1.000e+20                       6.6747k                  767.3763m
       1.5230            1.000e+20                       6.6722k                  767.4529m
       1.5240            1.000e+20                       6.6697k                  767.5295m
       1.5250            1.000e+20                       6.6672k                  767.6059m
       1.5260            1.000e+20                       6.6648k                  767.6822m
       1.5270            1.000e+20                       6.6623k                  767.7584m
       1.5280            1.000e+20                       6.6598k                  767.8344m
       1.5290            1.000e+20                       6.6573k                  767.9104m
       1.5300            1.000e+20                       6.6549k                  767.9862m
       1.5310            1.000e+20                       6.6524k                  768.0618m
       1.5320            1.000e+20                       6.6499k                  768.1374m
       1.5330            1.000e+20                       6.6475k                  768.2128m
       1.5340            1.000e+20                       6.6450k                  768.2881m
       1.5350            1.000e+20                       6.6426k                  768.3633m
       1.5360            1.000e+20                       6.6401k                  768.4384m
       1.5370            1.000e+20                       6.6377k                  768.5133m
       1.5380            1.000e+20                       6.6352k                  768.5882m
       1.5390            1.000e+20                       6.6328k                  768.6629m
       1.5400            1.000e+20                       6.6304k                  768.7374m
       1.5410            1.000e+20                       6.6279k                  768.8119m
       1.5420            1.000e+20                       6.6255k                  768.8862m
       1.5430            1.000e+20                       6.6231k                  768.9604m
       1.5440            1.000e+20                       6.6207k                  769.0345m
       1.5450            1.000e+20                       6.6182k                  769.1085m
       1.5460            1.000e+20                       6.6158k                  769.1823m
       1.5470            1.000e+20                       6.6134k                  769.2561m
       1.5480            1.000e+20                       6.6110k                  769.3297m
       1.5490            1.000e+20                       6.6086k                  769.4031m
       1.5500            1.000e+20                       6.6062k                  769.4765m
       1.5510            1.000e+20                       6.6038k                  769.5498m
       1.5520            1.000e+20                       6.6014k                  769.6229m
       1.5530            1.000e+20                       6.5990k                  769.6959m
       1.5540            1.000e+20                       6.5966k                  769.7688m
       1.5550            1.000e+20                       6.5942k                  769.8415m
       1.5560            1.000e+20                       6.5918k                  769.9142m
       1.5570            1.000e+20                       6.5894k                  769.9867m
       1.5580            1.000e+20                       6.5871k                  770.0591m
       1.5590            1.000e+20                       6.5847k                  770.1314m
       1.5600            1.000e+20                       6.5823k                  770.2035m
       1.5610            1.000e+20                       6.5799k                  770.2756m
       1.5620            1.000e+20                       6.5776k                  770.3475m
       1.5630            1.000e+20                       6.5752k                  770.4193m
       1.5640            1.000e+20                       6.5729k                  770.4910m
       1.5650            1.000e+20                       6.5705k                  770.5625m
       1.5660            1.000e+20                       6.5681k                  770.6340m
       1.5670            1.000e+20                       6.5658k                  770.7053m
       1.5680            1.000e+20                       6.5634k                  770.7765m
       1.5690            1.000e+20                       6.5611k                  770.8476m
       1.5700            1.000e+20                       6.5587k                  770.9186m
       1.5710            1.000e+20                       6.5564k                  770.9894m
       1.5720            1.000e+20                       6.5541k                  771.0602m
       1.5730            1.000e+20                       6.5517k                  771.1308m
       1.5740            1.000e+20                       6.5494k                  771.2013m
       1.5750            1.000e+20                       6.5471k                  771.2717m
       1.5760            1.000e+20                       6.5447k                  771.3419m
       1.5770            1.000e+20                       6.5424k                  771.4121m
       1.5780            1.000e+20                       6.5401k                  771.4821m
       1.5790            1.000e+20                       6.5378k                  771.5520m
       1.5800            1.000e+20                       6.5355k                  771.6218m
       1.5810            1.000e+20                       6.5332k                  771.6915m
       1.5820            1.000e+20                       6.5309k                  771.7610m
       1.5830            1.000e+20                       6.5285k                  771.8305m
       1.5840            1.000e+20                       6.5262k                  771.8998m
       1.5850            1.000e+20                       6.5239k                  771.9690m
       1.5860            1.000e+20                       6.5216k                  772.0381m
       1.5870            1.000e+20                       6.5194k                  772.1070m
       1.5880            1.000e+20                       6.5171k                  772.1759m
       1.5890            1.000e+20                       6.5148k                  772.2446m
       1.5900            1.000e+20                       6.5125k                  772.3132m
       1.5910            1.000e+20                       6.5102k                  772.3817m
       1.5920            1.000e+20                       6.5079k                  772.4501m
       1.5930            1.000e+20                       6.5056k                  772.5184m
       1.5940            1.000e+20                       6.5034k                  772.5865m
       1.5950            1.000e+20                       6.5011k                  772.6546m
       1.5960            1.000e+20                       6.4988k                  772.7225m
       1.5970            1.000e+20                       6.4966k                  772.7903m
       1.5980            1.000e+20                       6.4943k                  772.8580m
       1.5990            1.000e+20                       6.4920k                  772.9255m
       1.6000            1.000e+20                       6.4898k                  772.9930m
       1.6010            1.000e+20                       6.4875k                  773.0603m
       1.6020            1.000e+20                       6.4853k                  773.1275m
       1.6030            1.000e+20                       6.4830k                  773.1946m
       1.6040            1.000e+20                       6.4808k                  773.2616m
       1.6050            1.000e+20                       6.4785k                  773.3285m
       1.6060            1.000e+20                       6.4763k                  773.3952m
       1.6070            1.000e+20                       6.4741k                  773.4619m
       1.6080            1.000e+20                       6.4718k                  773.5284m
       1.6090            1.000e+20                       6.4696k                  773.5948m
       1.6100            1.000e+20                       6.4674k                  773.6611m
       1.6110            1.000e+20                       6.4651k                  773.7273m
       1.6120            1.000e+20                       6.4629k                  773.7933m
       1.6130            1.000e+20                       6.4607k                  773.8593m
       1.6140            1.000e+20                       6.4585k                  773.9251m
       1.6150            1.000e+20                       6.4563k                  773.9908m
       1.6160            1.000e+20                       6.4541k                  774.0564m
       1.6170            1.000e+20                       6.4518k                  774.1219m
       1.6180            1.000e+20                       6.4496k                  774.1873m
       1.6190            1.000e+20                       6.4474k                  774.2525m
       1.6200            1.000e+20                       6.4452k                  774.3176m
       1.6210            1.000e+20                       6.4430k                  774.3827m
       1.6220            1.000e+20                       6.4408k                  774.4476m
       1.6230            1.000e+20                       6.4386k                  774.5124m
       1.6240            1.000e+20                       6.4364k                  774.5770m
       1.6250            1.000e+20                       6.4343k                  774.6416m
       1.6260            1.000e+20                       6.4321k                  774.7060m
       1.6270            1.000e+20                       6.4299k                  774.7704m
       1.6280            1.000e+20                       6.4277k                  774.8346m
       1.6290            1.000e+20                       6.4255k                  774.8987m
       1.6300            1.000e+20                       6.4234k                  774.9627m
       1.6310            1.000e+20                       6.4212k                  775.0265m
       1.6320            1.000e+20                       6.4190k                  775.0903m
       1.6330            1.000e+20                       6.4168k                  775.1539m
       1.6340            1.000e+20                       6.4147k                  775.2175m
       1.6350            1.000e+20                       6.4125k                  775.2809m
       1.6360            1.000e+20                       6.4104k                  775.3442m
       1.6370            1.000e+20                       6.4082k                  775.4074m
       1.6380            1.000e+20                       6.4060k                  775.4704m
       1.6390            1.000e+20                       6.4039k                  775.5334m
       1.6400            1.000e+20                       6.4017k                  775.5962m
       1.6410            1.000e+20                       6.3996k                  775.6589m
       1.6420            1.000e+20                       6.3975k                  775.7215m
       1.6430            1.000e+20                       6.3953k                  775.7840m
       1.6440            1.000e+20                       6.3932k                  775.8464m
       1.6450            1.000e+20                       6.3910k                  775.9087m
       1.6460            1.000e+20                       6.3889k                  775.9708m
       1.6470            1.000e+20                       6.3868k                  776.0329m
       1.6480            1.000e+20                       6.3846k                  776.0948m
       1.6490            1.000e+20                       6.3825k                  776.1566m
       1.6500            1.000e+20                       6.3804k                  776.2183m
       1.6510            1.000e+20                       6.3783k                  776.2798m
       1.6520            1.000e+20                       6.3762k                  776.3413m
       1.6530            1.000e+20                       6.3740k                  776.4026m
       1.6540            1.000e+20                       6.3719k                  776.4639m
       1.6550            1.000e+20                       6.3698k                  776.5250m
       1.6560            1.000e+20                       6.3677k                  776.5860m
       1.6570            1.000e+20                       6.3656k                  776.6469m
       1.6580            1.000e+20                       6.3635k                  776.7077m
       1.6590            1.000e+20                       6.3614k                  776.7683m
       1.6600            1.000e+20                       6.3593k                  776.8288m
       1.6610            1.000e+20                       6.3572k                  776.8893m
       1.6620            1.000e+20                       6.3551k                  776.9496m
       1.6630            1.000e+20                       6.3530k                  777.0098m
       1.6640            1.000e+20                       6.3509k                  777.0699m
       1.6650            1.000e+20                       6.3489k                  777.1298m
       1.6660            1.000e+20                       6.3468k                  777.1897m
       1.6670            1.000e+20                       6.3447k                  777.2494m
       1.6680            1.000e+20                       6.3426k                  777.3090m
       1.6690            1.000e+20                       6.3405k                  777.3686m
       1.6700            1.000e+20                       6.3385k                  777.4280m
       1.6710            1.000e+20                       6.3364k                  777.4872m
       1.6720            1.000e+20                       6.3343k                  777.5464m
       1.6730            1.000e+20                       6.3323k                  777.6054m
       1.6740            1.000e+20                       6.3302k                  777.6644m
       1.6750            1.000e+20                       6.3281k                  777.7232m
       1.6760            1.000e+20                       6.3261k                  777.7819m
       1.6770            1.000e+20                       6.3240k                  777.8405m
       1.6780            1.000e+20                       6.3220k                  777.8989m
       1.6790            1.000e+20                       6.3199k                  777.9573m
       1.6800            1.000e+20                       6.3179k                  778.0155m
       1.6810            1.000e+20                       6.3158k                  778.0737m
       1.6820            1.000e+20                       6.3138k                  778.1317m
       1.6830            1.000e+20                       6.3117k                  778.1896m
       1.6840            1.000e+20                       6.3097k                  778.2474m
       1.6850            1.000e+20                       6.3077k                  778.3050m
       1.6860            1.000e+20                       6.3056k                  778.3626m
       1.6870            1.000e+20                       6.3036k                  778.4200m
       1.6880            1.000e+20                       6.3016k                  778.4773m
       1.6890            1.000e+20                       6.2995k                  778.5345m
       1.6900            1.000e+20                       6.2975k                  778.5916m
       1.6910            1.000e+20                       6.2955k                  778.6486m
       1.6920            1.000e+20                       6.2935k                  778.7054m
       1.6930            1.000e+20                       6.2915k                  778.7621m
       1.6940            1.000e+20                       6.2894k                  778.8188m
       1.6950            1.000e+20                       6.2874k                  778.8753m
       1.6960            1.000e+20                       6.2854k                  778.9317m
       1.6970            1.000e+20                       6.2834k                  778.9879m
       1.6980            1.000e+20                       6.2814k                  779.0441m
       1.6990            1.000e+20                       6.2794k                  779.1001m
       1.7000            1.000e+20                       6.2774k                  779.1560m
  
 **info** dc convergence successful at Newton-Raphson method 
1****** PrimeSim HSPICE -- R-2020.12-SP2 linux64 (May 24 2021 7074677) ******
 ******  
 *** 110030039 homework 2

 ****** operating point information tnom=  25.000 temp=  25.000 ******
 ****** operating point status is all       simulation time is     0.     
    node    =voltage      node    =voltage      node    =voltage

 +0:vdd     =   1.8000  0:vin     =   1.6000  0:vout    = 796.8696m


 **** voltage sources

 subckt                        
 element  0:vin      0:vdd     
  volts      1.6000     1.8000 
  current    0.       -26.5623u
  power      0.        47.8122u

     total voltage source power dissipation=   47.8122u       watts



 **** resistors

 subckt             
 element  0:r       
  r value   30.0000k
  v drop   796.8696m
  current   26.5623u
  power     21.1667u



 **** mosfets


 subckt             
 element  0:mn      
 model    0:n_18.1  
 region   Saturation
  id        26.5623u
  ibs     -7.248e-21
  ibd     -157.9096a
  vgs      803.1304m
  vds        1.0031 
  vbs        0.     
  vth      394.7374m
  vdsat    337.2298m
  vod      408.3930m
  beta     370.4768u
  gam eff  507.4472m
  gm       119.1390u
  gds        1.6462u
  gmb       22.4235u
  cdtot      1.6236f
  cgtot      8.2582f
  cstot      9.4026f
  cbtot      4.5285f
  cgs        7.2783f
  cgd      426.5870a







 ****     small-signal transfer characteristics

      v(vout)/vin                              =  772.9930m
      input resistance at             vin      =  1.000e+20
      output resistance at v(vout)             =    6.4898k




          ***** job concluded
 ******  
 *** 110030039 homework 2

 ****** job statistics summary tnom=  25.000 temp=  25.000 ******
  
 ******  Machine Information  ******
 CPU:
 model name	: Intel(R) Xeon(R) Gold 6326 CPU @ 2.90GHz
 cpu MHz	: 800.225
 CPU(s)		: 64
  
 OS:
 Linux version 3.10.0-1160.95.1.el7.x86_64 (mockbuild@kbuilder.bsys.centos.org) (gcc version 4.8.5 20150623 (Red Hat 4.8.5-44) (GCC) ) #1 SMP Mon Jul 24 13:59:37 UTC 2023

 System loadavg : 2.18 2.15 2.14 4/1179 56675


  ******  PrimeSim HSPICE Threads Information  ******

  Command Line Threads Count :     1
  Available CPU Count        :    64
  Actual Threads Count       :     1


  ******  Circuit Statistics  ******
  # nodes       =       6 # elements   =       4
  # resistors   =       1 # capacitors =       0 # inductors   =       0
  # mutual_inds =       0 # vccs       =       0 # vcvs        =       0
  # cccs        =       0 # ccvs       =       0 # volt_srcs   =       2
  # curr_srcs   =       0 # diodes     =       0 # bjts        =       0
  # jfets       =       0 # mosfets    =       1 # U elements  =       0
  # T elements  =       0 # W elements =       0 # B elements  =       0
  # S elements  =       0 # P elements =       0 # va device   =       0
  # vector_srcs =       0 # N elements =       0


  ******  Runtime Statistics (seconds)  ******

  analysis           time    # points   tot. iter  conv.iter
  op point           0.01           1           6
  dc sweep           0.00         201         406
  readin             0.02
  errchk             0.00
  setup              0.00
  output             0.00


           peak memory used        470.86 megabytes
           total cpu time            0.03 seconds
           total elapsed time        0.52 seconds
           job started at     04:23:16 10/28/2023
           job ended   at     04:23:17 10/28/2023

>info:         ***** hspice job concluded
           job total runtime         0.52 seconds


 lic: Release hspice token(s) 
 lic: total license checkout elapse time:        0.49(s)
